Version 4
SHEET 1 880 680
WIRE 384 -32 320 -32
WIRE 320 96 320 48
FLAG -32 -64 VCC
FLAG 384 -32 0
FLAG -32 16 0
FLAG 560 16 0
SYMBOL Opamps\\OP07 320 64 R0
SYMATTR InstName U1
SYMBOL voltage 320 64 R180
WINDOW 0 24 96 Left 2
WINDOW 3 24 16 Left 2
SYMATTR InstName V1
SYMATTR Value 5
SYMBOL voltage 560 -80 R0
SYMATTR InstName V2
SYMBOL voltage -32 -80 R0
SYMATTR InstName V3
SYMATTR Value 3.3
